
 OpenBabel11032123023D

205204  0  0  0  0  0  0  0  0999 V2000
   36.5781   26.6657  -13.1030 C   0  0  0  0  0  0  0  0  0  0  0  0
   35.3977   26.3139  -12.2219 C   0  0  0  0  0  0  0  0  0  0  0  0
   35.6432   25.0411  -11.4660 C   0  0  0  0  0  0  0  0  0  0  0  0
   35.6770   24.9645  -10.1305 C   0  0  0  0  0  0  0  0  0  0  0  0
   35.5131   26.1747   -9.2611 C   0  0  0  0  0  0  0  0  0  0  0  0
   35.6140   25.8592   -7.7871 C   0  0  0  0  0  0  0  0  0  0  0  0
   36.9812   25.3675   -7.4162 C   0  0  0  0  0  0  0  0  0  0  0  0
   37.5630   25.6312   -6.2454 C   0  0  0  0  0  0  0  0  0  0  0  0
   36.9047   26.3984   -5.1414 C   0  0  0  0  0  0  0  0  0  0  0  0
   36.6064   25.5003   -3.9620 C   0  0  0  0  0  0  0  0  0  0  0  0
   37.8622   25.0280   -3.3020 C   0  0  0  0  0  0  0  0  0  0  0  0
   37.9900   24.8883   -1.9832 C   0  0  0  0  0  0  0  0  0  0  0  0
   36.8738   25.1020   -1.0107 C   0  0  0  0  0  0  0  0  0  0  0  0
   36.4635   23.7942   -0.3731 C   0  0  0  0  0  0  0  0  0  0  0  0
   37.5483   23.2513    0.5000 C   0  0  0  0  0  0  0  0  0  0  0  0
   37.3190   22.6370    1.6592 C   0  0  0  0  0  0  0  0  0  0  0  0
   35.9522   22.3358    2.1852 C   0  0  0  0  0  0  0  0  0  0  0  0
   35.6976   20.8465    2.1784 C   0  0  0  0  0  0  0  0  0  0  0  0
   36.5818   20.1407    3.1557 C   0  0  0  0  0  0  0  0  0  0  0  0
   36.1797   19.1075    3.8943 C   0  0  0  0  0  0  0  0  0  0  0  0
   34.8305   18.4741    3.7745 C   0  0  0  0  0  0  0  0  0  0  0  0
   34.9472   17.0813    3.2008 C   0  0  0  0  0  0  0  0  0  0  0  0
   35.6525   16.1630    4.1459 C   0  0  0  0  0  0  0  0  0  0  0  0
   35.3101   14.8879    4.3221 C   0  0  0  0  0  0  0  0  0  0  0  0
   34.2430   14.1974    3.5359 C   0  0  0  0  0  0  0  0  0  0  0  0
   34.8423   13.1529    2.6239 C   0  0  0  0  0  0  0  0  0  0  0  0
   35.4394   12.0290    3.4075 C   0  0  0  0  0  0  0  0  0  0  0  0
   35.3705   10.7535    3.0310 C   0  0  0  0  0  0  0  0  0  0  0  0
   34.7670   10.2987    1.7402 C   0  0  0  0  0  0  0  0  0  0  0  0
   35.8352    9.7558    0.8174 C   0  0  0  0  0  0  0  0  0  0  0  0
   36.4279    8.4945    1.3592 C   0  0  0  0  0  0  0  0  0  0  0  0
   36.7751    7.4609    0.5939 C   0  0  0  0  0  0  0  0  0  0  0  0
   36.6940    7.4680   -0.8972 C   0  0  0  0  0  0  0  0  0  0  0  0
   38.0788    7.4448   -1.5079 C   0  0  0  0  0  0  0  0  0  0  0  0
   38.7726    6.1509   -1.2302 C   0  0  0  0  0  0  0  0  0  0  0  0
   39.5578    5.5353   -2.1126 C   0  0  0  0  0  0  0  0  0  0  0  0
   39.9228    6.1012   -3.4490 C   0  0  0  0  0  0  0  0  0  0  0  0
   41.3847    6.4717   -3.4771 C   0  0  0  0  0  0  0  0  0  0  0  0
   42.2612    5.2685   -3.3683 C   0  0  0  0  0  0  0  0  0  0  0  0
   43.3822    5.1190   -4.0496 C   0  0  0  0  0  0  0  0  0  0  0  0
   43.9644    6.2001   -4.9008 C   0  0  0  0  0  0  0  0  0  0  0  0
   45.4702    6.2464   -4.8000 C   0  0  0  0  0  0  0  0  0  0  0  0
   46.0685    4.9981   -5.3680 C   0  0  0  0  0  0  0  0  0  0  0  0
   46.7804    4.9574   -6.4933 C   0  0  0  0  0  0  0  0  0  0  0  0
   47.1504    6.1744   -7.2777 C   0  0  0  0  0  0  0  0  0  0  0  0
   48.5470    6.0565   -7.8483 C   0  0  0  0  0  0  0  0  0  0  0  0
   48.6062    4.9793   -8.8808 C   0  0  0  0  0  0  0  0  0  0  0  0
   48.7905    5.2081  -10.1801 C   0  0  0  0  0  0  0  0  0  0  0  0
   49.0451    6.5680  -10.7472 C   0  0  0  0  0  0  0  0  0  0  0  0
   50.0505    6.5105  -11.8757 C   0  0  0  0  0  0  0  0  0  0  0  0
   49.4834    5.7733  -13.0471 C   0  0  0  0  0  0  0  0  0  0  0  0
   49.1761    6.3499  -14.2077 C   0  0  0  0  0  0  0  0  0  0  0  0
   49.4432    7.7901  -14.5072 C   0  0  0  0  0  0  0  0  0  0  0  0
   49.8855    7.9790  -15.9394 C   0  0  0  0  0  0  0  0  0  0  0  0
   48.7703    7.6552  -16.8806 C   0  0  0  0  0  0  0  0  0  0  0  0
   48.1461    8.5630  -17.6295 C   0  0  0  0  0  0  0  0  0  0  0  0
   48.5446   10.0023  -17.6812 C   0  0  0  0  0  0  0  0  0  0  0  0
   48.4079   10.5560  -19.0794 C   0  0  0  0  0  0  0  0  0  0  0  0
   46.9726   10.6077  -19.4896 C   0  0  0  0  0  0  0  0  0  0  0  0
   46.2930   11.7392  -19.6674 C   0  0  0  0  0  0  0  0  0  0  0  0
   46.9087   13.0967  -19.5603 C   0  0  0  0  0  0  0  0  0  0  0  0
   46.3381   14.0369  -20.5949 C   0  0  0  0  0  0  0  0  0  0  0  0
   44.8977   14.3195  -20.3168 C   0  0  0  0  0  0  0  0  0  0  0  0
   44.4381   15.5053  -19.9206 C   0  0  0  0  0  0  0  0  0  0  0  0
   45.2981   16.7214  -19.7919 C   0  0  0  0  0  0  0  0  0  0  0  0
   44.5592   17.9646  -20.2347 C   0  0  0  0  0  0  0  0  0  0  0  0
   43.4314   18.2665  -19.2989 C   0  0  0  0  0  0  0  0  0  0  0  0
   43.4051   19.3207  -18.4850 C   0  0  0  0  0  0  0  0  0  0  0  0
   44.4628   20.3775  -18.4712 C   0  0  0  0  0  0  0  0  0  0  0  0
   43.8702   21.7518  -18.2537 C   0  0  0  0  0  0  0  0  0  0  0  0
   43.2909   21.8662  -16.8797 C   0  0  0  0  0  0  0  0  0  0  0  0
   43.7936   22.6443  -15.9207 C   0  0  0  0  0  0  0  0  0  0  0  0
   44.9556   23.5663  -16.1230 C   0  0  0  0  0  0  0  0  0  0  0  0
   44.7866   24.8577  -15.3480 C   0  0  0  0  0  0  0  0  0  0  0  0
   44.8353   24.6124  -13.8691 C   0  0  0  0  0  0  0  0  0  0  0  0
   45.8161   25.0644  -13.0823 C   0  0  0  0  0  0  0  0  0  0  0  0
   46.9410   25.8876  -13.6251 C   0  0  0  0  0  0  0  0  0  0  0  0
   47.8851   26.3041  -12.5215 C   0  0  0  0  0  0  0  0  0  0  0  0
   48.9984   27.1549  -13.0497 C   0  0  0  0  0  0  0  0  0  0  0  0
   49.9555   27.6639  -12.2401 C   0  0  0  0  0  0  0  0  0  0  0  0
   50.0070   27.4318  -10.7745 C   0  0  0  0  0  0  0  0  0  0  0  0
   36.3869   27.6101  -13.6208 H   0  0  0  0  0  0  0  0  0  0  0  0
   36.7522   25.8905  -13.8550 H   0  0  0  0  0  0  0  0  0  0  0  0
   37.4895   26.7825  -12.5069 H   0  0  0  0  0  0  0  0  0  0  0  0
   34.4908   26.1955  -12.8208 H   0  0  0  0  0  0  0  0  0  0  0  0
   35.2120   27.1628  -11.5532 H   0  0  0  0  0  0  0  0  0  0  0  0
   35.7825   24.1309  -12.0464 H   0  0  0  0  0  0  0  0  0  0  0  0
   35.8525   23.9985   -9.6567 H   0  0  0  0  0  0  0  0  0  0  0  0
   34.5265   26.6193   -9.4376 H   0  0  0  0  0  0  0  0  0  0  0  0
   36.2747   26.9257   -9.5134 H   0  0  0  0  0  0  0  0  0  0  0  0
   34.8622   25.1211   -7.4889 H   0  0  0  0  0  0  0  0  0  0  0  0
   35.3773   26.7993   -7.2794 H   0  0  0  0  0  0  0  0  0  0  0  0
   37.5318   24.7568   -8.1298 H   0  0  0  0  0  0  0  0  0  0  0  0
   38.5548   25.2232   -6.0636 H   0  0  0  0  0  0  0  0  0  0  0  0
   35.9432   26.8251   -5.4330 H   0  0  0  0  0  0  0  0  0  0  0  0
   37.5358   27.2451   -4.8540 H   0  0  0  0  0  0  0  0  0  0  0  0
   35.9941   24.6371   -4.2521 H   0  0  0  0  0  0  0  0  0  0  0  0
   35.9987   26.1126   -3.2900 H   0  0  0  0  0  0  0  0  0  0  0  0
   38.7213   24.7771   -3.9178 H   0  0  0  0  0  0  0  0  0  0  0  0
   38.9476   24.5443   -1.6011 H   0  0  0  0  0  0  0  0  0  0  0  0
   35.9672   25.4937   -1.4751 H   0  0  0  0  0  0  0  0  0  0  0  0
   37.1739   25.8413   -0.2636 H   0  0  0  0  0  0  0  0  0  0  0  0
   36.1816   23.0445   -1.1236 H   0  0  0  0  0  0  0  0  0  0  0  0
   35.5614   24.0314    0.1969 H   0  0  0  0  0  0  0  0  0  0  0  0
   38.5828   23.3528    0.1832 H   0  0  0  0  0  0  0  0  0  0  0  0
   38.1797   22.2856    2.2219 H   0  0  0  0  0  0  0  0  0  0  0  0
   35.1523   22.7695    1.5819 H   0  0  0  0  0  0  0  0  0  0  0  0
   35.8430   22.7620    3.1868 H   0  0  0  0  0  0  0  0  0  0  0  0
   35.8301   20.4134    1.1789 H   0  0  0  0  0  0  0  0  0  0  0  0
   34.6401   20.7419    2.4353 H   0  0  0  0  0  0  0  0  0  0  0  0
   37.6097   20.4711    3.2756 H   0  0  0  0  0  0  0  0  0  0  0  0
   36.8990   18.6683    4.5798 H   0  0  0  0  0  0  0  0  0  0  0  0
   34.1599   19.0104    3.1007 H   0  0  0  0  0  0  0  0  0  0  0  0
   34.3399   18.4707    4.7530 H   0  0  0  0  0  0  0  0  0  0  0  0
   35.4599   17.0805    2.2305 H   0  0  0  0  0  0  0  0  0  0  0  0
   33.9156   16.7666    3.0180 H   0  0  0  0  0  0  0  0  0  0  0  0
   36.4943   16.5378    4.7210 H   0  0  0  0  0  0  0  0  0  0  0  0
   35.8836   14.3048    5.0380 H   0  0  0  0  0  0  0  0  0  0  0  0
   33.6869   14.8697    2.8790 H   0  0  0  0  0  0  0  0  0  0  0  0
   33.5068   13.7644    4.2196 H   0  0  0  0  0  0  0  0  0  0  0  0
   35.5982   13.5807    1.9532 H   0  0  0  0  0  0  0  0  0  0  0  0
   34.0118   12.8180    1.9967 H   0  0  0  0  0  0  0  0  0  0  0  0
   35.9665   12.2494    4.3316 H   0  0  0  0  0  0  0  0  0  0  0  0
   35.8335   10.0121    3.6753 H   0  0  0  0  0  0  0  0  0  0  0  0
   34.2854   11.1041    1.1817 H   0  0  0  0  0  0  0  0  0  0  0  0
   33.9886    9.5598    1.9403 H   0  0  0  0  0  0  0  0  0  0  0  0
   36.6298   10.4913    0.6360 H   0  0  0  0  0  0  0  0  0  0  0  0
   35.3254    9.5929   -0.1367 H   0  0  0  0  0  0  0  0  0  0  0  0
   36.5989    8.4046    2.4287 H   0  0  0  0  0  0  0  0  0  0  0  0
   37.1944    6.5867    1.0856 H   0  0  0  0  0  0  0  0  0  0  0  0
   36.2181    8.3639   -1.3014 H   0  0  0  0  0  0  0  0  0  0  0  0
   36.0867    6.6234   -1.2376 H   0  0  0  0  0  0  0  0  0  0  0  0
   38.6955    8.2796   -1.1515 H   0  0  0  0  0  0  0  0  0  0  0  0
   37.9180    7.5983   -2.5783 H   0  0  0  0  0  0  0  0  0  0  0  0
   38.6405    5.6766   -0.2615 H   0  0  0  0  0  0  0  0  0  0  0  0
   40.0071    4.5922   -1.8124 H   0  0  0  0  0  0  0  0  0  0  0  0
   39.3853    7.0250   -3.6847 H   0  0  0  0  0  0  0  0  0  0  0  0
   39.6562    5.3894   -4.2329 H   0  0  0  0  0  0  0  0  0  0  0  0
   41.6420    7.1810   -2.6900 H   0  0  0  0  0  0  0  0  0  0  0  0
   41.5593    6.9781   -4.4134 H   0  0  0  0  0  0  0  0  0  0  0  0
   41.9741    4.4476   -2.7220 H   0  0  0  0  0  0  0  0  0  0  0  0
   43.8824    4.1533   -3.9592 H   0  0  0  0  0  0  0  0  0  0  0  0
   43.6107    7.1876   -4.5767 H   0  0  0  0  0  0  0  0  0  0  0  0
   43.6293    6.0673   -5.9334 H   0  0  0  0  0  0  0  0  0  0  0  0
   45.8121    6.3792   -3.7699 H   0  0  0  0  0  0  0  0  0  0  0  0
   45.7719    7.1501   -5.3362 H   0  0  0  0  0  0  0  0  0  0  0  0
   45.8632    4.0543   -4.8697 H   0  0  0  0  0  0  0  0  0  0  0  0
   47.0995    3.9814   -6.8486 H   0  0  0  0  0  0  0  0  0  0  0  0
   47.1757    7.0698   -6.6510 H   0  0  0  0  0  0  0  0  0  0  0  0
   46.4031    6.3508   -8.0618 H   0  0  0  0  0  0  0  0  0  0  0  0
   49.2889    5.8604   -7.0677 H   0  0  0  0  0  0  0  0  0  0  0  0
   48.7797    7.0482   -8.2427 H   0  0  0  0  0  0  0  0  0  0  0  0
   48.4319    3.9526   -8.5685 H   0  0  0  0  0  0  0  0  0  0  0  0
   48.7410    4.3540  -10.8502 H   0  0  0  0  0  0  0  0  0  0  0  0
   49.4886    7.2437  -10.0099 H   0  0  0  0  0  0  0  0  0  0  0  0
   48.0973    7.0196  -11.0683 H   0  0  0  0  0  0  0  0  0  0  0  0
   50.9850    6.0398  -11.5638 H   0  0  0  0  0  0  0  0  0  0  0  0
   50.2942    7.5517  -12.0978 H   0  0  0  0  0  0  0  0  0  0  0  0
   49.2521    4.7185  -12.9313 H   0  0  0  0  0  0  0  0  0  0  0  0
   48.6996    5.7307  -14.9626 H   0  0  0  0  0  0  0  0  0  0  0  0
   50.2660    8.1861  -13.9056 H   0  0  0  0  0  0  0  0  0  0  0  0
   48.5548    8.3889  -14.2709 H   0  0  0  0  0  0  0  0  0  0  0  0
   50.7572    7.3629  -16.1802 H   0  0  0  0  0  0  0  0  0  0  0  0
   50.2191    9.0162  -16.0055 H   0  0  0  0  0  0  0  0  0  0  0  0
   48.4029    6.6337  -16.9179 H   0  0  0  0  0  0  0  0  0  0  0  0
   47.2987    8.2263  -18.2198 H   0  0  0  0  0  0  0  0  0  0  0  0
   49.5979   10.1440  -17.4249 H   0  0  0  0  0  0  0  0  0  0  0  0
   47.9574   10.5773  -16.9541 H   0  0  0  0  0  0  0  0  0  0  0  0
   48.9748    9.9681  -19.8067 H   0  0  0  0  0  0  0  0  0  0  0  0
   48.8833   11.5389  -19.0490 H   0  0  0  0  0  0  0  0  0  0  0  0
   46.4292    9.6718  -19.5930 H   0  0  0  0  0  0  0  0  0  0  0  0
   45.2332   11.6550  -19.8891 H   0  0  0  0  0  0  0  0  0  0  0  0
   47.9827   13.0757  -19.7611 H   0  0  0  0  0  0  0  0  0  0  0  0
   46.7818   13.4839  -18.5414 H   0  0  0  0  0  0  0  0  0  0  0  0
   46.4434   13.6377  -21.6079 H   0  0  0  0  0  0  0  0  0  0  0  0
   46.9679   14.9282  -20.5544 H   0  0  0  0  0  0  0  0  0  0  0  0
   44.1878   13.4983  -20.3824 H   0  0  0  0  0  0  0  0  0  0  0  0
   43.3819   15.5733  -19.6732 H   0  0  0  0  0  0  0  0  0  0  0  0
   46.1776   16.6720  -20.4397 H   0  0  0  0  0  0  0  0  0  0  0  0
   45.6634   16.8091  -18.7607 H   0  0  0  0  0  0  0  0  0  0  0  0
   44.1739   17.8662  -21.2528 H   0  0  0  0  0  0  0  0  0  0  0  0
   45.3135   18.7531  -20.2695 H   0  0  0  0  0  0  0  0  0  0  0  0
   42.6098   17.5582  -19.2341 H   0  0  0  0  0  0  0  0  0  0  0  0
   42.5680   19.4009  -17.7966 H   0  0  0  0  0  0  0  0  0  0  0  0
   44.9827   20.4451  -19.4307 H   0  0  0  0  0  0  0  0  0  0  0  0
   45.2181   20.1345  -17.7131 H   0  0  0  0  0  0  0  0  0  0  0  0
   43.1003   21.9810  -18.9968 H   0  0  0  0  0  0  0  0  0  0  0  0
   44.6861   22.4539  -18.4343 H   0  0  0  0  0  0  0  0  0  0  0  0
   42.4412   21.2368  -16.6268 H   0  0  0  0  0  0  0  0  0  0  0  0
   43.3287   22.5905  -14.9400 H   0  0  0  0  0  0  0  0  0  0  0  0
   45.0500   23.8704  -17.1693 H   0  0  0  0  0  0  0  0  0  0  0  0
   45.8851   23.0499  -15.8527 H   0  0  0  0  0  0  0  0  0  0  0  0
   43.8476   25.3547  -15.6086 H   0  0  0  0  0  0  0  0  0  0  0  0
   45.5860   25.5268  -15.6854 H   0  0  0  0  0  0  0  0  0  0  0  0
   44.0470   24.0134  -13.4211 H   0  0  0  0  0  0  0  0  0  0  0  0
   45.7961   24.8202  -12.0229 H   0  0  0  0  0  0  0  0  0  0  0  0
   46.5336   26.7864  -14.1063 H   0  0  0  0  0  0  0  0  0  0  0  0
   47.4926   25.3104  -14.3790 H   0  0  0  0  0  0  0  0  0  0  0  0
   48.2948   25.4055  -12.0440 H   0  0  0  0  0  0  0  0  0  0  0  0
   47.3195   26.8703  -11.7710 H   0  0  0  0  0  0  0  0  0  0  0  0
   49.0309   27.3675  -14.1163 H   0  0  0  0  0  0  0  0  0  0  0  0
   50.7105   28.3028  -12.6858 H   0  0  0  0  0  0  0  0  0  0  0  0
   49.1907   26.8054  -10.4023 H   0  0  0  0  0  0  0  0  0  0  0  0
   49.9564   28.3836  -10.2406 H   0  0  0  0  0  0  0  0  0  0  0  0
   50.9422   26.9240  -10.5258 H   0  0  0  0  0  0  0  0  0  0  0  0
  1  2  1  0  0  0  0
  1 82  1  0  0  0  0
  1 83  1  0  0  0  0
  1 84  1  0  0  0  0
  2  3  1  0  0  0  0
  2 85  1  0  0  0  0
  2 86  1  0  0  0  0
  3  4  2  0  0  0  0
  3 87  1  0  0  0  0
  4  5  1  0  0  0  0
  4 88  1  0  0  0  0
  5  6  1  0  0  0  0
  5 89  1  0  0  0  0
  5 90  1  0  0  0  0
  6  7  1  0  0  0  0
  6 91  1  0  0  0  0
  6 92  1  0  0  0  0
  7  8  2  0  0  0  0
  7 93  1  0  0  0  0
  8  9  1  0  0  0  0
  8 94  1  0  0  0  0
  9 10  1  0  0  0  0
  9 95  1  0  0  0  0
  9 96  1  0  0  0  0
 10 11  1  0  0  0  0
 10 97  1  0  0  0  0
 10 98  1  0  0  0  0
 11 12  2  0  0  0  0
 11 99  1  0  0  0  0
 12 13  1  0  0  0  0
 12100  1  0  0  0  0
 13 14  1  0  0  0  0
 13101  1  0  0  0  0
 13102  1  0  0  0  0
 14 15  1  0  0  0  0
 14103  1  0  0  0  0
 14104  1  0  0  0  0
 15 16  2  0  0  0  0
 15105  1  0  0  0  0
 16 17  1  0  0  0  0
 16106  1  0  0  0  0
 17 18  1  0  0  0  0
 17107  1  0  0  0  0
 17108  1  0  0  0  0
 18 19  1  0  0  0  0
 18109  1  0  0  0  0
 18110  1  0  0  0  0
 19 20  2  0  0  0  0
 19111  1  0  0  0  0
 20 21  1  0  0  0  0
 20112  1  0  0  0  0
 21 22  1  0  0  0  0
 21113  1  0  0  0  0
 21114  1  0  0  0  0
 22 23  1  0  0  0  0
 22115  1  0  0  0  0
 22116  1  0  0  0  0
 23 24  2  0  0  0  0
 23117  1  0  0  0  0
 24 25  1  0  0  0  0
 24118  1  0  0  0  0
 25 26  1  0  0  0  0
 25119  1  0  0  0  0
 25120  1  0  0  0  0
 26 27  1  0  0  0  0
 26121  1  0  0  0  0
 26122  1  0  0  0  0
 27 28  2  0  0  0  0
 27123  1  0  0  0  0
 28 29  1  0  0  0  0
 28124  1  0  0  0  0
 29 30  1  0  0  0  0
 29125  1  0  0  0  0
 29126  1  0  0  0  0
 30 31  1  0  0  0  0
 30127  1  0  0  0  0
 30128  1  0  0  0  0
 31 32  2  0  0  0  0
 31129  1  0  0  0  0
 32 33  1  0  0  0  0
 32130  1  0  0  0  0
 33 34  1  0  0  0  0
 33131  1  0  0  0  0
 33132  1  0  0  0  0
 34 35  1  0  0  0  0
 34133  1  0  0  0  0
 34134  1  0  0  0  0
 35 36  2  0  0  0  0
 35135  1  0  0  0  0
 36 37  1  0  0  0  0
 36136  1  0  0  0  0
 37 38  1  0  0  0  0
 37137  1  0  0  0  0
 37138  1  0  0  0  0
 38 39  1  0  0  0  0
 38139  1  0  0  0  0
 38140  1  0  0  0  0
 39 40  2  0  0  0  0
 39141  1  0  0  0  0
 40 41  1  0  0  0  0
 40142  1  0  0  0  0
 41 42  1  0  0  0  0
 41143  1  0  0  0  0
 41144  1  0  0  0  0
 42 43  1  0  0  0  0
 42145  1  0  0  0  0
 42146  1  0  0  0  0
 43 44  2  0  0  0  0
 43147  1  0  0  0  0
 44 45  1  0  0  0  0
 44148  1  0  0  0  0
 45 46  1  0  0  0  0
 45149  1  0  0  0  0
 45150  1  0  0  0  0
 46 47  1  0  0  0  0
 46151  1  0  0  0  0
 46152  1  0  0  0  0
 47 48  2  0  0  0  0
 47153  1  0  0  0  0
 48 49  1  0  0  0  0
 48154  1  0  0  0  0
 49 50  1  0  0  0  0
 49155  1  0  0  0  0
 49156  1  0  0  0  0
 50 51  1  0  0  0  0
 50157  1  0  0  0  0
 50158  1  0  0  0  0
 51 52  2  0  0  0  0
 51159  1  0  0  0  0
 52 53  1  0  0  0  0
 52160  1  0  0  0  0
 53 54  1  0  0  0  0
 53161  1  0  0  0  0
 53162  1  0  0  0  0
 54 55  1  0  0  0  0
 54163  1  0  0  0  0
 54164  1  0  0  0  0
 55 56  2  0  0  0  0
 55165  1  0  0  0  0
 56 57  1  0  0  0  0
 56166  1  0  0  0  0
 57 58  1  0  0  0  0
 57167  1  0  0  0  0
 57168  1  0  0  0  0
 58 59  1  0  0  0  0
 58169  1  0  0  0  0
 58170  1  0  0  0  0
 59 60  2  0  0  0  0
 59171  1  0  0  0  0
 60 61  1  0  0  0  0
 60172  1  0  0  0  0
 61 62  1  0  0  0  0
 61173  1  0  0  0  0
 61174  1  0  0  0  0
 62 63  1  0  0  0  0
 62175  1  0  0  0  0
 62176  1  0  0  0  0
 63 64  2  0  0  0  0
 63177  1  0  0  0  0
 64 65  1  0  0  0  0
 64178  1  0  0  0  0
 65 66  1  0  0  0  0
 65179  1  0  0  0  0
 65180  1  0  0  0  0
 66 67  1  0  0  0  0
 66181  1  0  0  0  0
 66182  1  0  0  0  0
 67 68  2  0  0  0  0
 67183  1  0  0  0  0
 68 69  1  0  0  0  0
 68184  1  0  0  0  0
 69 70  1  0  0  0  0
 69185  1  0  0  0  0
 69186  1  0  0  0  0
 70 71  1  0  0  0  0
 70187  1  0  0  0  0
 70188  1  0  0  0  0
 71 72  2  0  0  0  0
 71189  1  0  0  0  0
 72 73  1  0  0  0  0
 72190  1  0  0  0  0
 73 74  1  0  0  0  0
 73191  1  0  0  0  0
 73192  1  0  0  0  0
 74 75  1  0  0  0  0
 74193  1  0  0  0  0
 74194  1  0  0  0  0
 75 76  2  0  0  0  0
 75195  1  0  0  0  0
 76 77  1  0  0  0  0
 76196  1  0  0  0  0
 77 78  1  0  0  0  0
 77197  1  0  0  0  0
 77198  1  0  0  0  0
 78 79  1  0  0  0  0
 78199  1  0  0  0  0
 78200  1  0  0  0  0
 79 80  2  0  0  0  0
 79201  1  0  0  0  0
 80 81  1  0  0  0  0
 80202  1  0  0  0  0
 81203  1  0  0  0  0
 81204  1  0  0  0  0
 81205  1  0  0  0  0
M  END
$$$$
