
 OpenBabel10222119083D

 20 19  0  0  0  0  0  0  0  0999 V2000
    0.8771   -0.0372    0.0426 C   0  0  0  0  0  0  0  0  0  0  0  0
    2.3956   -0.0302    0.0326 C   0  0  0  0  0  0  0  0  0  0  0  0
    2.9316    0.5902   -1.2557 C   0  0  0  0  0  0  0  0  0  0  0  0
    4.4582    0.5973   -1.2705 C   0  0  0  0  0  0  0  0  0  0  0  0
    4.9941    1.2194   -2.5579 C   0  0  0  0  0  0  0  0  0  0  0  0
    6.5125    1.2243   -2.5683 C   0  0  0  0  0  0  0  0  0  0  0  0
    0.5041   -0.4835    0.9695 H   0  0  0  0  0  0  0  0  0  0  0  0
    0.4837   -0.6180   -0.7980 H   0  0  0  0  0  0  0  0  0  0  0  0
    0.4814    0.9812   -0.0289 H   0  0  0  0  0  0  0  0  0  0  0  0
    2.7638   -1.0579    0.1344 H   0  0  0  0  0  0  0  0  0  0  0  0
    2.7616    0.5327    0.8994 H   0  0  0  0  0  0  0  0  0  0  0  0
    2.5581    1.6169   -1.3535 H   0  0  0  0  0  0  0  0  0  0  0  0
    2.5581    0.0265   -2.1194 H   0  0  0  0  0  0  0  0  0  0  0  0
    4.8316   -0.4297   -1.1741 H   0  0  0  0  0  0  0  0  0  0  0  0
    4.8317    1.1598   -0.4060 H   0  0  0  0  0  0  0  0  0  0  0  0
    4.6270    2.2477   -2.6575 H   0  0  0  0  0  0  0  0  0  0  0  0
    4.6269    0.6586   -3.4256 H   0  0  0  0  0  0  0  0  0  0  0  0
    6.9071    1.8034   -1.7273 H   0  0  0  0  0  0  0  0  0  0  0  0
    6.8857    1.6722   -3.4950 H   0  0  0  0  0  0  0  0  0  0  0  0
    6.9070    0.2056   -2.4995 H   0  0  0  0  0  0  0  0  0  0  0  0
  1  2  1  0  0  0  0
  1  7  1  0  0  0  0
  1  8  1  0  0  0  0
  1  9  1  0  0  0  0
  2  3  1  0  0  0  0
  2 10  1  0  0  0  0
  2 11  1  0  0  0  0
  3  4  1  0  0  0  0
  3 12  1  0  0  0  0
  3 13  1  0  0  0  0
  4  5  1  0  0  0  0
  4 14  1  0  0  0  0
  4 15  1  0  0  0  0
  5  6  1  0  0  0  0
  5 16  1  0  0  0  0
  5 17  1  0  0  0  0
  6 18  1  0  0  0  0
  6 19  1  0  0  0  0
  6 20  1  0  0  0  0
M  END
