
 OpenBabel10222119103D

 47 46  0  0  0  0  0  0  0  0999 V2000
    0.9550   -0.0162   -0.1372 C   0  0  0  0  0  0  0  0  0  0  0  0
    2.4751   -0.0123   -0.1254 C   0  0  0  0  0  0  0  0  0  0  0  0
    3.0142    0.7858    1.0592 C   0  0  0  0  0  0  0  0  0  0  0  0
    4.5407    0.7939    1.0697 C   0  0  0  0  0  0  0  0  0  0  0  0
    5.0704    1.5939    2.2574 C   0  0  0  0  0  0  0  0  0  0  0  0
    6.5957    1.6026    2.2721 C   0  0  0  0  0  0  0  0  0  0  0  0
    7.1207    2.4039    3.4592 C   0  0  0  0  0  0  0  0  0  0  0  0
    8.6457    2.4138    3.4746 C   0  0  0  0  0  0  0  0  0  0  0  0
    9.1704    3.2148    4.6614 C   0  0  0  0  0  0  0  0  0  0  0  0
   10.6956    3.2241    4.6779 C   0  0  0  0  0  0  0  0  0  0  0  0
   11.2196    4.0254    5.8655 C   0  0  0  0  0  0  0  0  0  0  0  0
   12.7456    4.0377    5.8855 C   0  0  0  0  0  0  0  0  0  0  0  0
   13.2668    4.8407    7.0749 C   0  0  0  0  0  0  0  0  0  0  0  0
   14.7929    4.8581    7.1021 C   0  0  0  0  0  0  0  0  0  0  0  0
   15.3102    5.6566    8.2866 C   0  0  0  0  0  0  0  0  0  0  0  0
    0.5834   -0.5924   -0.9903 H   0  0  0  0  0  0  0  0  0  0  0  0
    0.5625    1.0018   -0.2147 H   0  0  0  0  0  0  0  0  0  0  0  0
    0.5594   -0.4688    0.7783 H   0  0  0  0  0  0  0  0  0  0  0  0
    2.8427    0.4193   -1.0635 H   0  0  0  0  0  0  0  0  0  0  0  0
    2.8405   -1.0445   -0.0769 H   0  0  0  0  0  0  0  0  0  0  0  0
    2.6429    0.3522    1.9956 H   0  0  0  0  0  0  0  0  0  0  0  0
    2.6416    1.8154    1.0096 H   0  0  0  0  0  0  0  0  0  0  0  0
    4.9155    1.2298    0.1355 H   0  0  0  0  0  0  0  0  0  0  0  0
    4.9156   -0.2360    1.1198 H   0  0  0  0  0  0  0  0  0  0  0  0
    4.6956    1.1595    3.1920 H   0  0  0  0  0  0  0  0  0  0  0  0
    4.6961    2.6231    2.2054 H   0  0  0  0  0  0  0  0  0  0  0  0
    6.9724    2.0368    1.3383 H   0  0  0  0  0  0  0  0  0  0  0  0
    6.9711    0.5734    2.3258 H   0  0  0  0  0  0  0  0  0  0  0  0
    6.7446    1.9699    4.3937 H   0  0  0  0  0  0  0  0  0  0  0  0
    6.7447    3.4331    3.4061 H   0  0  0  0  0  0  0  0  0  0  0  0
    9.0223    2.8482    2.5404 H   0  0  0  0  0  0  0  0  0  0  0  0
    9.0217    1.3848    3.5279 H   0  0  0  0  0  0  0  0  0  0  0  0
    8.7929    2.7812    5.5956 H   0  0  0  0  0  0  0  0  0  0  0  0
    8.7946    4.2439    4.6071 H   0  0  0  0  0  0  0  0  0  0  0  0
   11.0725    3.6578    3.7436 H   0  0  0  0  0  0  0  0  0  0  0  0
   11.0705    2.1947    4.7317 H   0  0  0  0  0  0  0  0  0  0  0  0
   10.8411    3.5909    6.7988 H   0  0  0  0  0  0  0  0  0  0  0  0
   10.8422    5.0539    5.8113 H   0  0  0  0  0  0  0  0  0  0  0  0
   13.1230    4.4719    4.9514 H   0  0  0  0  0  0  0  0  0  0  0  0
   13.1218    3.0087    5.9395 H   0  0  0  0  0  0  0  0  0  0  0  0
   12.8860    4.4052    8.0067 H   0  0  0  0  0  0  0  0  0  0  0  0
   12.8869    5.8677    7.0191 H   0  0  0  0  0  0  0  0  0  0  0  0
   15.1774    5.2964    6.1739 H   0  0  0  0  0  0  0  0  0  0  0  0
   15.1767    3.8329    7.1610 H   0  0  0  0  0  0  0  0  0  0  0  0
   14.9656    6.6945    8.2384 H   0  0  0  0  0  0  0  0  0  0  0  0
   16.4042    5.6601    8.2929 H   0  0  0  0  0  0  0  0  0  0  0  0
   14.9647    5.2234    9.2307 H   0  0  0  0  0  0  0  0  0  0  0  0
  1  2  1  0  0  0  0
  1 16  1  0  0  0  0
  1 17  1  0  0  0  0
  1 18  1  0  0  0  0
  2  3  1  0  0  0  0
  2 19  1  0  0  0  0
  2 20  1  0  0  0  0
  3  4  1  0  0  0  0
  3 21  1  0  0  0  0
  3 22  1  0  0  0  0
  4  5  1  0  0  0  0
  4 23  1  0  0  0  0
  4 24  1  0  0  0  0
  5  6  1  0  0  0  0
  5 25  1  0  0  0  0
  5 26  1  0  0  0  0
  6  7  1  0  0  0  0
  6 27  1  0  0  0  0
  6 28  1  0  0  0  0
  7  8  1  0  0  0  0
  7 29  1  0  0  0  0
  7 30  1  0  0  0  0
  8  9  1  0  0  0  0
  8 31  1  0  0  0  0
  8 32  1  0  0  0  0
  9 10  1  0  0  0  0
  9 33  1  0  0  0  0
  9 34  1  0  0  0  0
 10 11  1  0  0  0  0
 10 35  1  0  0  0  0
 10 36  1  0  0  0  0
 11 12  1  0  0  0  0
 11 37  1  0  0  0  0
 11 38  1  0  0  0  0
 12 13  1  0  0  0  0
 12 39  1  0  0  0  0
 12 40  1  0  0  0  0
 13 14  1  0  0  0  0
 13 41  1  0  0  0  0
 13 42  1  0  0  0  0
 14 15  1  0  0  0  0
 14 43  1  0  0  0  0
 14 44  1  0  0  0  0
 15 45  1  0  0  0  0
 15 46  1  0  0  0  0
 15 47  1  0  0  0  0
M  END
