*****
 OpenBabel09222121353D

 16 16  0  0  0  0  0  0  0  0999 V2000
    1.3683   -0.2710   -0.0271 C   0  0  0  0  0  0  0  0  0  0  0  0
    0.4610   -1.3336    0.0389 C   0  0  0  0  0  0  0  0  0  0  0  0
   -0.9099   -1.0832    0.0576 C   0  0  0  0  0  0  0  0  0  0  0  0
   -1.3745    0.2283    0.0151 C   0  0  0  0  0  0  0  0  0  0  0  0
   -0.4669    1.2892   -0.0527 C   0  0  0  0  0  0  0  0  0  0  0  0
    0.9145    1.0535   -0.0705 C   0  0  0  0  0  0  0  0  0  0  0  0
    1.8218    2.2007   -0.2106 C   0  0  0  0  0  0  0  0  0  0  0  0
    3.0683    2.2710    0.2745 C   0  0  0  0  0  0  0  0  0  0  0  0
    2.4315   -0.4951   -0.0623 H   0  0  0  0  0  0  0  0  0  0  0  0
    0.8260   -2.3570    0.0658 H   0  0  0  0  0  0  0  0  0  0  0  0
   -1.6144   -1.9102    0.1000 H   0  0  0  0  0  0  0  0  0  0  0  0
   -2.4425    0.4284    0.0293 H   0  0  0  0  0  0  0  0  0  0  0  0
   -0.8521    2.3059   -0.0894 H   0  0  0  0  0  0  0  0  0  0  0  0
    1.4208    3.0580   -0.7506 H   0  0  0  0  0  0  0  0  0  0  0  0
    3.5220    1.4661    0.8409 H   0  0  0  0  0  0  0  0  0  0  0  0
    3.6641    3.1664    0.1215 H   0  0  0  0  0  0  0  0  0  0  0  0
  1  2  2  0  0  0  0
  1  6  1  0  0  0  0
  1  9  1  0  0  0  0
  2  3  1  0  0  0  0
  2 10  1  0  0  0  0
  3  4  2  0  0  0  0
  3 11  1  0  0  0  0
  4  5  1  0  0  0  0
  4 12  1  0  0  0  0
  5  6  2  0  0  0  0
  5 13  1  0  0  0  0
  6  7  1  0  0  0  0
  7  8  2  0  0  0  0
  7 14  1  0  0  0  0
  8 15  1  0  0  0  0
  8 16  1  0  0  0  0
M  END
$$$$
