packmol.txyz
 OpenBabel10132100343D

160160  0  0  0  0  0  0  0  0999 V2000
   25.8188   32.9754   12.3450 C   0  0  0  0  0  0  0  0  0  0  0  0
   24.6039   33.6075   12.0603 C   0  0  0  0  0  0  0  0  0  0  0  0
   24.1756   33.7386   10.7405 C   0  0  0  0  0  0  0  0  0  0  0  0
   24.9627   33.2428    9.7050 C   0  0  0  0  0  0  0  0  0  0  0  0
   26.1757   32.6098    9.9909 C   0  0  0  0  0  0  0  0  0  0  0  0
   26.6206   32.4719   11.3127 C   0  0  0  0  0  0  0  0  0  0  0  0
   27.8695   31.7389   11.5613 C   0  0  0  0  0  0  0  0  0  0  0  0
   28.7061   31.9514   12.5855 C   0  0  0  0  0  0  0  0  0  0  0  0
   26.1189   32.8672   13.3842 H   0  0  0  0  0  0  0  0  0  0  0  0
   23.9881   33.9883   12.8709 H   0  0  0  0  0  0  0  0  0  0  0  0
   23.2269   34.2222   10.5209 H   0  0  0  0  0  0  0  0  0  0  0  0
   24.6328   33.3426    8.6744 H   0  0  0  0  0  0  0  0  0  0  0  0
   26.7728   32.2260    9.1665 H   0  0  0  0  0  0  0  0  0  0  0  0
   28.1194   30.9686   10.8321 H   0  0  0  0  0  0  0  0  0  0  0  0
   28.5326   32.7159   13.3338 H   0  0  0  0  0  0  0  0  0  0  0  0
   29.6104   31.3576   12.6842 H   0  0  0  0  0  0  0  0  0  0  0  0
    7.8170   34.9661    9.0104 C   0  0  0  0  0  0  0  0  0  0  0  0
    8.0943   33.6028    9.1560 C   0  0  0  0  0  0  0  0  0  0  0  0
    7.0977   32.6570    8.9221 C   0  0  0  0  0  0  0  0  0  0  0  0
    5.8232   33.0728    8.5474 C   0  0  0  0  0  0  0  0  0  0  0  0
    5.5478   34.4353    8.4005 C   0  0  0  0  0  0  0  0  0  0  0  0
    6.5389   35.3984    8.6338 C   0  0  0  0  0  0  0  0  0  0  0  0
    6.2147   36.8122    8.3994 C   0  0  0  0  0  0  0  0  0  0  0  0
    6.7648   37.8531    9.0379 C   0  0  0  0  0  0  0  0  0  0  0  0
    8.6182   35.6816    9.1778 H   0  0  0  0  0  0  0  0  0  0  0  0
    9.0918   33.2803    9.4427 H   0  0  0  0  0  0  0  0  0  0  0  0
    7.3167   31.5973    9.0270 H   0  0  0  0  0  0  0  0  0  0  0  0
    5.0430   32.3390    8.3638 H   0  0  0  0  0  0  0  0  0  0  0  0
    4.5461   34.7377    8.1027 H   0  0  0  0  0  0  0  0  0  0  0  0
    5.4529   37.0040    7.6442 H   0  0  0  0  0  0  0  0  0  0  0  0
    7.5101   37.7350    9.8158 H   0  0  0  0  0  0  0  0  0  0  0  0
    6.4572   38.8666    8.7962 H   0  0  0  0  0  0  0  0  0  0  0  0
   21.5737    5.0052   26.5774 C   0  0  0  0  0  0  0  0  0  0  0  0
   22.6803    5.7638   26.1818 C   0  0  0  0  0  0  0  0  0  0  0  0
   22.6496    7.1533   26.2856 C   0  0  0  0  0  0  0  0  0  0  0  0
   21.5121    7.7853   26.7801 C   0  0  0  0  0  0  0  0  0  0  0  0
   20.4076    7.0260   27.1769 C   0  0  0  0  0  0  0  0  0  0  0  0
   20.4228    5.6282   27.0769 C   0  0  0  0  0  0  0  0  0  0  0  0
   19.2618    4.8752   27.5708 C   0  0  0  0  0  0  0  0  0  0  0  0
   18.8468    3.6903   27.1042 C   0  0  0  0  0  0  0  0  0  0  0  0
   21.6323    3.9219   26.5063 H   0  0  0  0  0  0  0  0  0  0  0  0
   23.5696    5.2677   25.8017 H   0  0  0  0  0  0  0  0  0  0  0  0
   23.5135    7.7414   25.9861 H   0  0  0  0  0  0  0  0  0  0  0  0
   21.4836    8.8684   26.8630 H   0  0  0  0  0  0  0  0  0  0  0  0
   19.5309    7.5404   27.5644 H   0  0  0  0  0  0  0  0  0  0  0  0
   18.7018    5.3453   28.3787 H   0  0  0  0  0  0  0  0  0  0  0  0
   19.3413    3.1772   26.2877 H   0  0  0  0  0  0  0  0  0  0  0  0
   17.9720    3.2103   27.5338 H   0  0  0  0  0  0  0  0  0  0  0  0
   21.9753   17.3950   35.2416 C   0  0  0  0  0  0  0  0  0  0  0  0
   23.1709   16.6753   35.1450 C   0  0  0  0  0  0  0  0  0  0  0  0
   23.1454   15.3105   34.8636 C   0  0  0  0  0  0  0  0  0  0  0  0
   21.9260   14.6638   34.6832 C   0  0  0  0  0  0  0  0  0  0  0  0
   20.7321   15.3844   34.7782 C   0  0  0  0  0  0  0  0  0  0  0  0
   20.7414   16.7568   35.0623 C   0  0  0  0  0  0  0  0  0  0  0  0
   19.4620   17.4790   35.0840 C   0  0  0  0  0  0  0  0  0  0  0  0
   19.1934   18.5646   35.8212 C   0  0  0  0  0  0  0  0  0  0  0  0
   22.0245   18.4627   35.4406 H   0  0  0  0  0  0  0  0  0  0  0  0
   24.1220   17.1837   35.2802 H   0  0  0  0  0  0  0  0  0  0  0  0
   24.0756   14.7539   34.7800 H   0  0  0  0  0  0  0  0  0  0  0  0
   21.9012   13.5998   34.4635 H   0  0  0  0  0  0  0  0  0  0  0  0
   19.7909   14.8597   34.6294 H   0  0  0  0  0  0  0  0  0  0  0  0
   18.6783   17.0727   34.4452 H   0  0  0  0  0  0  0  0  0  0  0  0
   19.9170   19.0077   36.4955 H   0  0  0  0  0  0  0  0  0  0  0  0
   18.2128   19.0294   35.7715 H   0  0  0  0  0  0  0  0  0  0  0  0
   30.3390    7.8963    8.3313 C   0  0  0  0  0  0  0  0  0  0  0  0
   29.8625    6.8162    7.5810 C   0  0  0  0  0  0  0  0  0  0  0  0
   30.7270    5.7899    7.2046 C   0  0  0  0  0  0  0  0  0  0  0  0
   32.0682    5.8446    7.5734 C   0  0  0  0  0  0  0  0  0  0  0  0
   32.5427    6.9235    8.3248 C   0  0  0  0  0  0  0  0  0  0  0  0
   31.6861    7.9639    8.7094 C   0  0  0  0  0  0  0  0  0  0  0  0
   32.2215    9.0393    9.5554 C   0  0  0  0  0  0  0  0  0  0  0  0
   31.7869   10.3061    9.5720 C   0  0  0  0  0  0  0  0  0  0  0  0
   29.6388    8.6724    8.6302 H   0  0  0  0  0  0  0  0  0  0  0  0
   28.8136    6.7727    7.2994 H   0  0  0  0  0  0  0  0  0  0  0  0
   30.3537    4.9465    6.6289 H   0  0  0  0  0  0  0  0  0  0  0  0
   32.7460    5.0466    7.2823 H   0  0  0  0  0  0  0  0  0  0  0  0
   33.5935    6.9437    8.6057 H   0  0  0  0  0  0  0  0  0  0  0  0
   33.0475    8.7603   10.2091 H   0  0  0  0  0  0  0  0  0  0  0  0
   30.9862   10.6584    8.9322 H   0  0  0  0  0  0  0  0  0  0  0  0
   32.2494   11.0335   10.2331 H   0  0  0  0  0  0  0  0  0  0  0  0
   34.9002   29.5418   22.1117 C   0  0  0  0  0  0  0  0  0  0  0  0
   35.8114   28.5639   21.6993 C   0  0  0  0  0  0  0  0  0  0  0  0
   36.8024   28.8777   20.7710 C   0  0  0  0  0  0  0  0  0  0  0  0
   36.8807   30.1667   20.2513 C   0  0  0  0  0  0  0  0  0  0  0  0
   35.9707   31.1435   20.6656 C   0  0  0  0  0  0  0  0  0  0  0  0
   34.9676   30.8428   21.5969 C   0  0  0  0  0  0  0  0  0  0  0  0
   34.0803   31.9235   22.0483 C   0  0  0  0  0  0  0  0  0  0  0  0
   32.8138   31.7713   22.4568 C   0  0  0  0  0  0  0  0  0  0  0  0
   34.1508   29.2761   22.8531 H   0  0  0  0  0  0  0  0  0  0  0  0
   35.7521   27.5598   22.1111 H   0  0  0  0  0  0  0  0  0  0  0  0
   37.5156   28.1192   20.4578 H   0  0  0  0  0  0  0  0  0  0  0  0
   37.6518   30.4161   19.5274 H   0  0  0  0  0  0  0  0  0  0  0  0
   36.0529   32.1453   20.2497 H   0  0  0  0  0  0  0  0  0  0  0  0
   34.5084   32.9254   22.0315 H   0  0  0  0  0  0  0  0  0  0  0  0
   32.3171   30.8083   22.4767 H   0  0  0  0  0  0  0  0  0  0  0  0
   32.2339   32.6345   22.7710 H   0  0  0  0  0  0  0  0  0  0  0  0
   22.6712   19.7205   15.5990 C   0  0  0  0  0  0  0  0  0  0  0  0
   23.4764   20.5143   16.4226 C   0  0  0  0  0  0  0  0  0  0  0  0
   24.4219   19.9220   17.2578 C   0  0  0  0  0  0  0  0  0  0  0  0
   24.5602   18.5369   17.2738 C   0  0  0  0  0  0  0  0  0  0  0  0
   23.7563   17.7449   16.4490 C   0  0  0  0  0  0  0  0  0  0  0  0
   22.7999   18.3257   15.6051 C   0  0  0  0  0  0  0  0  0  0  0  0
   22.0289   17.4521   14.7099 C   0  0  0  0  0  0  0  0  0  0  0  0
   20.7857   17.6894   14.2716 C   0  0  0  0  0  0  0  0  0  0  0  0
   21.9568   20.2093   14.9413 H   0  0  0  0  0  0  0  0  0  0  0  0
   23.3708   21.5959   16.4038 H   0  0  0  0  0  0  0  0  0  0  0  0
   25.0532   20.5404   17.8910 H   0  0  0  0  0  0  0  0  0  0  0  0
   25.2961   18.0706   17.9233 H   0  0  0  0  0  0  0  0  0  0  0  0
   23.8842   16.6649   16.4745 H   0  0  0  0  0  0  0  0  0  0  0  0
   22.5284   16.5355   14.3975 H   0  0  0  0  0  0  0  0  0  0  0  0
   20.2211   18.5681   14.5607 H   0  0  0  0  0  0  0  0  0  0  0  0
   20.2948   16.9800   13.6113 H   0  0  0  0  0  0  0  0  0  0  0  0
   24.1508   23.5053    5.3501 C   0  0  0  0  0  0  0  0  0  0  0  0
   24.6410   24.1911    6.4663 C   0  0  0  0  0  0  0  0  0  0  0  0
   24.3520   25.5435    6.6393 C   0  0  0  0  0  0  0  0  0  0  0  0
   23.5775   26.2119    5.6954 C   0  0  0  0  0  0  0  0  0  0  0  0
   23.0866   25.5250    4.5814 C   0  0  0  0  0  0  0  0  0  0  0  0
   23.3702   24.1656    4.3926 C   0  0  0  0  0  0  0  0  0  0  0  0
   22.7734   23.4762    3.2404 C   0  0  0  0  0  0  0  0  0  0  0  0
   23.3066   22.4284    2.5986 C   0  0  0  0  0  0  0  0  0  0  0  0
   24.3730   22.4457    5.2506 H   0  0  0  0  0  0  0  0  0  0  0  0
   25.2405   23.6656    7.2051 H   0  0  0  0  0  0  0  0  0  0  0  0
   24.7262   26.0734    7.5118 H   0  0  0  0  0  0  0  0  0  0  0  0
   23.3494   27.2663    5.8262 H   0  0  0  0  0  0  0  0  0  0  0  0
   22.4798   26.0660    3.8585 H   0  0  0  0  0  0  0  0  0  0  0  0
   21.8215   23.8752    2.8913 H   0  0  0  0  0  0  0  0  0  0  0  0
   24.2605   21.9956    2.8765 H   0  0  0  0  0  0  0  0  0  0  0  0
   22.7896   21.9860    1.7518 H   0  0  0  0  0  0  0  0  0  0  0  0
   33.6253   30.7945   11.3175 C   0  0  0  0  0  0  0  0  0  0  0  0
   33.2967   29.5881   10.6903 C   0  0  0  0  0  0  0  0  0  0  0  0
   34.2020   28.5285   10.6933 C   0  0  0  0  0  0  0  0  0  0  0  0
   35.4371   28.6752   11.3185 C   0  0  0  0  0  0  0  0  0  0  0  0
   35.7635   29.8806   11.9464 C   0  0  0  0  0  0  0  0  0  0  0  0
   34.8645   30.9557   11.9503 C   0  0  0  0  0  0  0  0  0  0  0  0
   35.2306   32.1758   12.6826 C   0  0  0  0  0  0  0  0  0  0  0  0
   34.8252   33.4161   12.3804 C   0  0  0  0  0  0  0  0  0  0  0  0
   32.8923   31.5974   11.3191 H   0  0  0  0  0  0  0  0  0  0  0  0
   32.3293   29.4738   10.2082 H   0  0  0  0  0  0  0  0  0  0  0  0
   33.9421   27.5883   10.2132 H   0  0  0  0  0  0  0  0  0  0  0  0
   36.1461   27.8517   11.3235 H   0  0  0  0  0  0  0  0  0  0  0  0
   36.7324   29.9718   12.4325 H   0  0  0  0  0  0  0  0  0  0  0  0
   35.8963   32.0351   13.5337 H   0  0  0  0  0  0  0  0  0  0  0  0
   34.1828   33.6320   11.5348 H   0  0  0  0  0  0  0  0  0  0  0  0
   35.1525   34.2593   12.9822 H   0  0  0  0  0  0  0  0  0  0  0  0
   30.4619   27.5750   14.1656 C   0  0  0  0  0  0  0  0  0  0  0  0
   31.6165   27.4244   13.3904 C   0  0  0  0  0  0  0  0  0  0  0  0
   32.6036   28.4083   13.4066 C   0  0  0  0  0  0  0  0  0  0  0  0
   32.4354   29.5444   14.1932 C   0  0  0  0  0  0  0  0  0  0  0  0
   31.2820   29.6928   14.9688 C   0  0  0  0  0  0  0  0  0  0  0  0
   30.2799   28.7130   14.9617 C   0  0  0  0  0  0  0  0  0  0  0  0
   29.1200   28.8872   15.8467 C   0  0  0  0  0  0  0  0  0  0  0  0
   27.8869   28.4183   15.6151 C   0  0  0  0  0  0  0  0  0  0  0  0
   29.7178   26.7825   14.1513 H   0  0  0  0  0  0  0  0  0  0  0  0
   31.7484   26.5336   12.7818 H   0  0  0  0  0  0  0  0  0  0  0  0
   33.5046   28.2862   12.8106 H   0  0  0  0  0  0  0  0  0  0  0  0
   33.2023   30.3141   14.2091 H   0  0  0  0  0  0  0  0  0  0  0  0
   31.1733   30.5866   15.5793 H   0  0  0  0  0  0  0  0  0  0  0  0
   29.3011   29.4572   16.7575 H   0  0  0  0  0  0  0  0  0  0  0  0
   27.6302   27.8643   14.7197 H   0  0  0  0  0  0  0  0  0  0  0  0
   27.0900   28.6007   16.3305 H   0  0  0  0  0  0  0  0  0  0  0  0
  1  2  2  0  0  0  0
  1  6  1  0  0  0  0
  1  9  1  0  0  0  0
  2  3  1  0  0  0  0
  2 10  1  0  0  0  0
  3  4  2  0  0  0  0
  3 11  1  0  0  0  0
  4  5  1  0  0  0  0
  4 12  1  0  0  0  0
  5  6  2  0  0  0  0
  5 13  1  0  0  0  0
  6  7  1  0  0  0  0
  7  8  2  0  0  0  0
  7 14  1  0  0  0  0
  8 15  1  0  0  0  0
  8 16  1  0  0  0  0
 17 18  2  0  0  0  0
 17 22  1  0  0  0  0
 17 25  1  0  0  0  0
 18 19  1  0  0  0  0
 18 26  1  0  0  0  0
 19 20  2  0  0  0  0
 19 27  1  0  0  0  0
 20 21  1  0  0  0  0
 20 28  1  0  0  0  0
 21 22  2  0  0  0  0
 21 29  1  0  0  0  0
 22 23  1  0  0  0  0
 23 24  2  0  0  0  0
 23 30  1  0  0  0  0
 24 31  1  0  0  0  0
 24 32  1  0  0  0  0
 33 34  2  0  0  0  0
 33 38  1  0  0  0  0
 33 41  1  0  0  0  0
 34 35  1  0  0  0  0
 34 42  1  0  0  0  0
 35 36  2  0  0  0  0
 35 43  1  0  0  0  0
 36 37  1  0  0  0  0
 36 44  1  0  0  0  0
 37 38  2  0  0  0  0
 37 45  1  0  0  0  0
 38 39  1  0  0  0  0
 39 40  2  0  0  0  0
 39 46  1  0  0  0  0
 40 47  1  0  0  0  0
 40 48  1  0  0  0  0
 49 50  2  0  0  0  0
 49 54  1  0  0  0  0
 49 57  1  0  0  0  0
 50 51  1  0  0  0  0
 50 58  1  0  0  0  0
 51 52  2  0  0  0  0
 51 59  1  0  0  0  0
 52 53  1  0  0  0  0
 52 60  1  0  0  0  0
 53 54  2  0  0  0  0
 53 61  1  0  0  0  0
 54 55  1  0  0  0  0
 55 56  2  0  0  0  0
 55 62  1  0  0  0  0
 56 63  1  0  0  0  0
 56 64  1  0  0  0  0
 65 66  2  0  0  0  0
 65 70  1  0  0  0  0
 65 73  1  0  0  0  0
 66 67  1  0  0  0  0
 66 74  1  0  0  0  0
 67 68  2  0  0  0  0
 67 75  1  0  0  0  0
 68 69  1  0  0  0  0
 68 76  1  0  0  0  0
 69 70  2  0  0  0  0
 69 77  1  0  0  0  0
 70 71  1  0  0  0  0
 71 72  2  0  0  0  0
 71 78  1  0  0  0  0
 72 79  1  0  0  0  0
 72 80  1  0  0  0  0
 81 82  2  0  0  0  0
 81 86  1  0  0  0  0
 81 89  1  0  0  0  0
 82 83  1  0  0  0  0
 82 90  1  0  0  0  0
 83 84  2  0  0  0  0
 83 91  1  0  0  0  0
 84 85  1  0  0  0  0
 84 92  1  0  0  0  0
 85 86  2  0  0  0  0
 85 93  1  0  0  0  0
 86 87  1  0  0  0  0
 87 88  2  0  0  0  0
 87 94  1  0  0  0  0
 88 95  1  0  0  0  0
 88 96  1  0  0  0  0
 97 98  2  0  0  0  0
 97102  1  0  0  0  0
 97105  1  0  0  0  0
 98 99  1  0  0  0  0
 98106  1  0  0  0  0
 99100  2  0  0  0  0
 99107  1  0  0  0  0
100101  1  0  0  0  0
100108  1  0  0  0  0
101102  2  0  0  0  0
101109  1  0  0  0  0
102103  1  0  0  0  0
103104  2  0  0  0  0
103110  1  0  0  0  0
104111  1  0  0  0  0
104112  1  0  0  0  0
113114  2  0  0  0  0
113118  1  0  0  0  0
113121  1  0  0  0  0
114115  1  0  0  0  0
114122  1  0  0  0  0
115116  2  0  0  0  0
115123  1  0  0  0  0
116117  1  0  0  0  0
116124  1  0  0  0  0
117118  2  0  0  0  0
117125  1  0  0  0  0
118119  1  0  0  0  0
119120  2  0  0  0  0
119126  1  0  0  0  0
120127  1  0  0  0  0
120128  1  0  0  0  0
129130  2  0  0  0  0
129134  1  0  0  0  0
129137  1  0  0  0  0
130131  1  0  0  0  0
130138  1  0  0  0  0
131132  2  0  0  0  0
131139  1  0  0  0  0
132133  1  0  0  0  0
132140  1  0  0  0  0
133134  2  0  0  0  0
133141  1  0  0  0  0
134135  1  0  0  0  0
135136  2  0  0  0  0
135142  1  0  0  0  0
136143  1  0  0  0  0
136144  1  0  0  0  0
145146  2  0  0  0  0
145150  1  0  0  0  0
145153  1  0  0  0  0
146147  1  0  0  0  0
146154  1  0  0  0  0
147148  2  0  0  0  0
147155  1  0  0  0  0
148149  1  0  0  0  0
148156  1  0  0  0  0
149150  2  0  0  0  0
149157  1  0  0  0  0
150151  1  0  0  0  0
151152  2  0  0  0  0
151158  1  0  0  0  0
152159  1  0  0  0  0
152160  1  0  0  0  0
M  END
$$$$
